
#======================================================================
# CRYSTAL DATA
#----------------------------------------------------------------------
data_VESTA_phase_1

_chemical_name_common                  'Generated by VASPKIT code             '
_cell_length_a                         11.598200
_cell_length_b                         11.598200
_cell_length_c                         21.048201
_cell_angle_alpha                      90.000000
_cell_angle_beta                       90.000000
_cell_angle_gamma                      120.000000
_cell_volume                           2452.035657
_space_group_name_H-M_alt              'P 1'
_space_group_IT_number                 1

loop_
_space_group_symop_operation_xyz
   'x, y, z'

loop_
   _atom_site_label
   _atom_site_occupancy
   _atom_site_fract_x
   _atom_site_fract_y
   _atom_site_fract_z
   _atom_site_adp_type
   _atom_site_U_iso_or_equiv
   _atom_site_type_symbol
   Ce1        1.0     0.003056     0.997010     0.459037    Uiso  ? Ce
   Ce2        1.0     0.222220     0.111110     0.309960    Uiso  ? Ce
   Ce3        1.0     0.325495     0.996938     0.461563    Uiso  ? Ce
   Ce4        1.0     0.555560     0.111110     0.309960    Uiso  ? Ce
   Ce5        1.0     0.669559     0.005750     0.463948    Uiso  ? Ce
   Ce6        1.0     0.888890     0.111110     0.309960    Uiso  ? Ce
   Ce7        1.0     0.994289     0.330431     0.463882    Uiso  ? Ce
   Ce8        1.0     0.222220     0.444440     0.309960    Uiso  ? Ce
   Ce9        1.0     0.332817     0.333883     0.458478    Uiso  ? Ce
   Ce10       1.0     0.555560     0.444440     0.309960    Uiso  ? Ce
   Ce11       1.0     0.671346     0.328774     0.456538    Uiso  ? Ce
   Ce12       1.0     0.888890     0.444440     0.309960    Uiso  ? Ce
   Ce13       1.0     0.003161     0.674534     0.461542    Uiso  ? Ce
   Ce14       1.0     0.222220     0.777780     0.309960    Uiso  ? Ce
   Ce15       1.0     0.334059     0.665943     0.459754    Uiso  ? Ce
   Ce16       1.0     0.555560     0.777780     0.309960    Uiso  ? Ce
   Ce17       1.0     0.666133     0.667207     0.458734    Uiso  ? Ce
   Ce18       1.0     0.888890     0.777780     0.309960    Uiso  ? Ce
   O1         1.0     0.005649     0.994853     0.582096    Uiso  ? O
   O2         1.0     0.111110     0.222220     0.272470    Uiso  ? O
   O3         1.0     0.226558     0.117649     0.421597    Uiso  ? O
   O4         1.0     0.109176     0.218852     0.502974    Uiso  ? O
   O5         1.0     0.000000     0.000000     0.347450    Uiso  ? O
   O6         1.0     0.335556     0.031611     0.579376    Uiso  ? O
   O7         1.0     0.444440     0.222220     0.272470    Uiso  ? O
   O8         1.0     0.550304     0.107267     0.421906    Uiso  ? O
   O9         1.0     0.453823     0.235232     0.500600    Uiso  ? O
   O10        1.0     0.333330     0.000000     0.347450    Uiso  ? O
   O11        1.0     0.642826     0.983220     0.578044    Uiso  ? O
   O12        1.0     0.777780     0.222220     0.272470    Uiso  ? O
   O13        1.0     0.891576     0.108565     0.423388    Uiso  ? O
   O14        1.0     0.777606     0.222351     0.490349    Uiso  ? O
   O15        1.0     0.666670     0.000000     0.347450    Uiso  ? O
   O16        1.0     0.016301     0.356885     0.577995    Uiso  ? O
   O17        1.0     0.111110     0.555560     0.272470    Uiso  ? O
   O18        1.0     0.217630     0.434136     0.422796    Uiso  ? O
   O19        1.0     0.108060     0.562048     0.502201    Uiso  ? O
   O20        1.0     0.000000     0.333330     0.347450    Uiso  ? O
   O21        1.0     0.316565     0.347680     0.593591    Uiso  ? O
   O22        1.0     0.444440     0.555560     0.272470    Uiso  ? O
   O23        1.0     0.554584     0.445642     0.420432    Uiso  ? O
   O24        1.0     0.446855     0.552418     0.502934    Uiso  ? O
   O25        1.0     0.333330     0.333330     0.347450    Uiso  ? O
   O26        1.0     0.659197     0.341179     0.591267    Uiso  ? O
   O27        1.0     0.777780     0.555560     0.272470    Uiso  ? O
   O28        1.0     0.892774     0.449651     0.421860    Uiso  ? O
   O29        1.0     0.765082     0.546079     0.500639    Uiso  ? O
   O30        1.0     0.666670     0.333330     0.347450    Uiso  ? O
   O31        1.0     0.969903     0.663673     0.579080    Uiso  ? O
   O32        1.0     0.111110     0.888890     0.272470    Uiso  ? O
   O33        1.0     0.220441     0.779624     0.421159    Uiso  ? O
   O34        1.0     0.110375     0.889729     0.488341    Uiso  ? O
   O35        1.0     0.000000     0.666670     0.347450    Uiso  ? O
   O36        1.0     0.305169     0.694532     0.597045    Uiso  ? O
   O37        1.0     0.444440     0.888890     0.272470    Uiso  ? O
   O38        1.0     0.565863     0.782332     0.422939    Uiso  ? O
   O39        1.0     0.437720     0.892090     0.502321    Uiso  ? O
   O40        1.0     0.333330     0.666670     0.347450    Uiso  ? O
   O41        1.0     0.654225     0.680984     0.591449    Uiso  ? O
   O42        1.0     0.777780     0.888890     0.272470    Uiso  ? O
   O43        1.0     0.882264     0.773474     0.421646    Uiso  ? O
   O44        1.0     0.781401     0.891446     0.502978    Uiso  ? O
   O45        1.0     0.666670     0.666670     0.347450    Uiso  ? O
   Ir1        1.0     0.484811     0.514147     0.587802    Uiso  ? Ir
   Ir2        1.0     0.159599     0.173399     0.583767    Uiso  ? Ir
   Ir3        1.0     0.492884     0.185665     0.582713    Uiso  ? Ir
   Ir4        1.0     0.815471     0.506710     0.582528    Uiso  ? Ir
   Ir5        1.0     0.827443     0.840639     0.583395    Uiso  ? Ir
   Ir6        1.0     0.473112     0.846315     0.586152    Uiso  ? Ir
   Ir7        1.0     0.153551     0.526425     0.586074    Uiso  ? Ir
