data_CONTCAR
_audit_creation_date              2025-04-25
_audit_creation_method            'Materials Studio'
_symmetry_space_group_name_H-M    'P1'
_symmetry_Int_Tables_number       1
_symmetry_cell_setting            triclinic
loop_
_symmetry_equiv_pos_as_xyz
  x,y,z
_cell_length_a                    11.5982
_cell_length_b                    11.5982
_cell_length_c                    21.0482
_cell_angle_alpha                 90.0000
_cell_angle_beta                  90.0000
_cell_angle_gamma                 120.0000
loop_
_atom_site_label
_atom_site_type_symbol
_atom_site_fract_x
_atom_site_fract_y
_atom_site_fract_z
_atom_site_U_iso_or_equiv
_atom_site_adp_type
_atom_site_occupancy
Ce1    Ce    0.00306   0.99701   0.45904   0.00000  Uiso   1.00
Ce2    Ce    0.22222   0.11111   0.30996   0.00000  Uiso   1.00
Ce3    Ce    0.32549   0.99694   0.46156   0.00000  Uiso   1.00
Ce4    Ce    0.55556   0.11111   0.30996   0.00000  Uiso   1.00
Ce5    Ce    0.66956   0.00575   0.46395   0.00000  Uiso   1.00
Ce6    Ce    0.88889   0.11111   0.30996   0.00000  Uiso   1.00
Ce7    Ce    0.99429   0.33043   0.46388   0.00000  Uiso   1.00
Ce8    Ce    0.22222   0.44444   0.30996   0.00000  Uiso   1.00
Ce9    Ce    0.33282   0.33388   0.45848   0.00000  Uiso   1.00
Ce10   Ce    0.55556   0.44444   0.30996   0.00000  Uiso   1.00
Ce11   Ce    0.67135   0.32877   0.45654   0.00000  Uiso   1.00
Ce12   Ce    0.88889   0.44444   0.30996   0.00000  Uiso   1.00
Ce13   Ce    0.00316   0.67453   0.46154   0.00000  Uiso   1.00
Ce14   Ce    0.22222   0.77778   0.30996   0.00000  Uiso   1.00
Ce15   Ce    0.33406   0.66594   0.45975   0.00000  Uiso   1.00
Ce16   Ce    0.55556   0.77778   0.30996   0.00000  Uiso   1.00
Ce17   Ce    0.66613   0.66721   0.45873   0.00000  Uiso   1.00
Ce18   Ce    0.88889   0.77778   0.30996   0.00000  Uiso   1.00
O19    O     0.00565   0.99485   0.58210   0.00000  Uiso   1.00
O20    O     0.11111   0.22222   0.27247   0.00000  Uiso   1.00
O21    O     0.22656   0.11765   0.42160   0.00000  Uiso   1.00
O22    O     0.10918   0.21885   0.50297   0.00000  Uiso   1.00
O23    O     0.00000   0.00000   0.34745   0.00000  Uiso   1.00
O24    O     0.33556   0.03161   0.57938   0.00000  Uiso   1.00
O25    O     0.44444   0.22222   0.27247   0.00000  Uiso   1.00
O26    O     0.55030   0.10727   0.42191   0.00000  Uiso   1.00
O27    O     0.45382   0.23523   0.50060   0.00000  Uiso   1.00
O28    O     0.33333   0.00000   0.34745   0.00000  Uiso   1.00
O29    O     0.64283   0.98322   0.57804   0.00000  Uiso   1.00
O30    O     0.77778   0.22222   0.27247   0.00000  Uiso   1.00
O31    O     0.89158   0.10857   0.42339   0.00000  Uiso   1.00
O32    O     0.77761   0.22235   0.49035   0.00000  Uiso   1.00
O33    O     0.66667   0.00000   0.34745   0.00000  Uiso   1.00
O34    O     0.01630   0.35688   0.57800   0.00000  Uiso   1.00
O35    O     0.11111   0.55556   0.27247   0.00000  Uiso   1.00
O36    O     0.21763   0.43414   0.42280   0.00000  Uiso   1.00
O37    O     0.10806   0.56205   0.50220   0.00000  Uiso   1.00
O38    O     0.00000   0.33333   0.34745   0.00000  Uiso   1.00
O39    O     0.31656   0.34768   0.59359   0.00000  Uiso   1.00
O40    O     0.44444   0.55556   0.27247   0.00000  Uiso   1.00
O41    O     0.55458   0.44564   0.42043   0.00000  Uiso   1.00
O42    O     0.44686   0.55242   0.50293   0.00000  Uiso   1.00
O43    O     0.33333   0.33333   0.34745   0.00000  Uiso   1.00
O44    O     0.65920   0.34118   0.59127   0.00000  Uiso   1.00
O45    O     0.77778   0.55556   0.27247   0.00000  Uiso   1.00
O46    O     0.89277   0.44965   0.42186   0.00000  Uiso   1.00
O47    O     0.76508   0.54608   0.50064   0.00000  Uiso   1.00
O48    O     0.66667   0.33333   0.34745   0.00000  Uiso   1.00
O49    O     0.96990   0.66367   0.57908   0.00000  Uiso   1.00
O50    O     0.11111   0.88889   0.27247   0.00000  Uiso   1.00
O51    O     0.22044   0.77962   0.42116   0.00000  Uiso   1.00
O52    O     0.11038   0.88973   0.48834   0.00000  Uiso   1.00
O53    O     0.00000   0.66667   0.34745   0.00000  Uiso   1.00
O54    O     0.30517   0.69453   0.59704   0.00000  Uiso   1.00
O55    O     0.44444   0.88889   0.27247   0.00000  Uiso   1.00
O56    O     0.56586   0.78233   0.42294   0.00000  Uiso   1.00
O57    O     0.43772   0.89209   0.50232   0.00000  Uiso   1.00
O58    O     0.33333   0.66667   0.34745   0.00000  Uiso   1.00
O59    O     0.65422   0.68098   0.59145   0.00000  Uiso   1.00
O60    O     0.77778   0.88889   0.27247   0.00000  Uiso   1.00
O61    O     0.88226   0.77347   0.42165   0.00000  Uiso   1.00
O62    O     0.78140   0.89145   0.50298   0.00000  Uiso   1.00
O63    O     0.66667   0.66667   0.34745   0.00000  Uiso   1.00
Ir64   Ir    0.48481   0.51415   0.58780   0.00000  Uiso   1.00
Ir65   Ir    0.15960   0.17340   0.58377   0.00000  Uiso   1.00
Ir66   Ir    0.49288   0.18566   0.58271   0.00000  Uiso   1.00
Ir67   Ir    0.81547   0.50671   0.58253   0.00000  Uiso   1.00
Ir68   Ir    0.82744   0.84064   0.58339   0.00000  Uiso   1.00
Ir69   Ir    0.47311   0.84632   0.58615   0.00000  Uiso   1.00
Ir70   Ir    0.15355   0.52643   0.58607   0.00000  Uiso   1.00
O71    O     0.42925   0.58667   0.65283   0.00000  Uiso   1.00
O72    O     0.54415   0.47272   0.67255   0.00000  Uiso   1.00
O73    O     0.57066   0.45780   0.52863   0.00000  Uiso   1.00
loop_
_geom_bond_atom_site_label_1
_geom_bond_atom_site_label_2
_geom_bond_distance
_geom_bond_site_symmetry_2
_ccdc_geom_bond_type
O19    Ir65    1.944   1_565 S
O19    Ir68    1.943   1_455 S
O22    Ir65    1.955   .     S
O24    Ir66    1.807   .     S
O27    Ir66    1.945   .     S
O29    Ir69    1.816   .     S
O34    Ir70    1.816   .     S
O37    Ir70    1.945   .     S
O39    Ir64    1.945   .     S
O39    Ir65    1.940   .     S
O42    Ir64    1.943   .     S
O44    Ir66    1.878   .     S
O44    Ir67    1.878   .     S
O47    Ir67    1.946   .     S
O49    Ir67    1.807   .     S
O54    Ir69    1.875   .     S
O54    Ir70    1.876   .     S
O57    Ir69    1.945   .     S
O59    Ir64    1.952   .     S
O59    Ir68    1.943   .     S
O62    Ir68    1.952   .     S
Ir64   O71     1.881   .     S
Ir64   O72     2.054   .     S
Ir64   O73     1.903   .     S
Ir65   O19     1.944   1_545 S
Ir68   O19     1.943   1_655 S
